/*--------------------------------*- C++ -*----------------------------------*\
| =========                 |                                                 |
| \\      /  F ield         | OpenFOAM: The Open Source CFD Toolbox           |
|  \\    /   O peration     | Version:  v2306                                 |
|   \\  /    A nd           | Website:  www.openfoam.com                      |
|    \\/     M anipulation  |                                                 |
\*---------------------------------------------------------------------------*/
FoamFile
{
    version     2.0;
    format      ascii;
    class       volScalarField;
    object      p_rgh;
}
// * * * * * * * * * * * * * * * * * * * * * * * * * * * * * * * * * * * * * //

dimensions      [0 2 -2 0 0 0 0];

internalField   uniform 100000;

boundaryField
{
    #includeEtc "caseDicts/setConstraintTypes"

    inlet
    {
        type fixedFluxPressure;
        gradient uniform 0;
        value $internalField;
    }

    outlet
    {
        type            fixedValue;
        value           $internalField;
    }

    lowerWall
    {
        type fixedFluxPressure;
        gradient uniform 0;
        value $internalField;
    }

    motorBikeGroup
    {
        type fixedFluxPressure;
        gradient uniform 0;
        value $internalField;
    }

    #include "include/frontBackUpperPatches"
}



// ************************************************************************* //
