/*--------------------------------*- C++ -*----------------------------------*\
| =========                 |                                                 |
| \\      /  F ield         | OpenFOAM: The Open Source CFD Toolbox           |
|  \\    /   O peration     | Version:  v2212                                 |
|   \\  /    A nd           | Website:  www.openfoam.com                      |
|    \\/     M anipulation  |                                                 |
\*---------------------------------------------------------------------------*/
FoamFile
{
    version     2.0;
    format      ascii;
    class       dictionary;
    object      fvOptions;
}
// * * * * * * * * * * * * * * * * * * * * * * * * * * * * * * * * * * * * * //

/*
testExplicit
{
    type a;

    selectionMode   cellZone;
    cellZone        testExplicit;
}
*/
testExplicit
{
    type            meanVelocityForce;
    active          yes;
 
    meanVelocityForceCoeffs
    {
        selectionMode   cellZone;
        cellZone        testExplicit;
 
        fields          (explicitSourceU);
        Ubar            (100 0 0);
        relaxation      1.0;
    }
}
/*
testExplicit
{
    type            tabulatedAccelerationSource;
    active          yes;

    selectionMode   cellZone;
    cellZone        testExplicit;
 
    fields          (U);

    timeDataFileName "constant/acceleration-terms.dat";
}

*/

//************************************************************************* //
