/*--------------------------------*- C++ -*----------------------------------*\
| =========                 |                                                 |
| \\      /  F ield         | OpenFOAM: The Open Source CFD Toolbox           |
|  \\    /   O peration     | Version:  v2306                                 |
|   \\  /    A nd           | Website:  www.openfoam.com                      |
|    \\/     M anipulation  |                                                 |
\*---------------------------------------------------------------------------*/
FoamFile
{
    version     2.0;
    format      ascii;
    class       dictionary;
    object      fvSolution;
}
// * * * * * * * * * * * * * * * * * * * * * * * * * * * * * * * * * * * * * //

solvers
{
    p
    {
        smoother        GaussSeidel;
        preconditioner DIC;
        solver          PCG;
        tolerance       1e-8;
        relTol          0.1;
        /*nSweeps         5;
        nCellsInCoarsestLevel   16;
        // Solver
        nPreSweeps              2;
        preSweepsLevelMultiplier 1;
        maxPreSweeps            4;
        nPostSweeps             2;
        postSweepsLevelMultiplier 1;
        maxPostSweeps           4;
        nFinestSweeps           2;
        interpolateCorrection   no; //dudo*/
    }

    Phi
    {
        $p;
    }

    U
    {
        smoother        GaussSeidel;
        preconditioner DILU;
        solver          PBiCG;
        tolerance       1e-8;
        relTol          0.1;
    }

    k
    {
        solver          smoothSolver;
        smoother        GaussSeidel;
        tolerance       1e-8;
        relTol          0.1;
        nSweeps         1;
    }

    omega
    {
        solver          smoothSolver;
        smoother        GaussSeidel;
        tolerance       1e-8;
        relTol          0.1;
        nSweeps         1;
    }
}

SIMPLE
{
    nNonOrthogonalCorrectors 0;
    consistent yes;
}

potentialFlow
{
    nNonOrthogonalCorrectors 10;
}

relaxationFactors
{
    equations
    {
        U               0.7;
        k               0.7;
        omega           0.7;
        p               0.6;
    }
}

cache
{
    //grad(U);
}


// ************************************************************************* //
