/*--------------------------------*- C++ -*----------------------------------*\
| =========                 |                                                 |
| \\      /  F ield         | OpenFOAM: The Open Source CFD Toolbox           |
|  \\    /   O peration     | Version:  v2306                                 |
|   \\  /    A nd           | Website:  www.openfoam.com                      |
|    \\/     M anipulation  |                                                 |
\*---------------------------------------------------------------------------*/
FoamFile
{
    version     2.0;
    format      ascii;
    class       dictionary;
    object      blockMeshDict;
}
// * * * * * * * * * * * * * * * * * * * * * * * * * * * * * * * * * * * * * //

scale   1;

vertices
(
    (-5 -4 0)
    (15 -4 0)
    (15  4 0)
    (-5  4 0)
    (-5 -4 8)
    (15 -4 8)
    (15  4 8)
    (-5  4 8)
);

edges
(
);

blocks
(
    hex (0 1 2 3 4 5 6 7) (30 30 30) simpleGrading (1 1 1)
);

boundary
(
    frontAndBack
    {
        type wall;
        faces
        (
            (0 1 5 4)
            (2 3 7 6)
        );
    }

    topAndBottom
    {
        type wall;
        faces
        (
            (4 5 6 7)
            (3 2 1 0)
        );
    }

    inlet
    {
        type wall;
        faces
        (
            (6 5 1 2)
        );
    }

    back
    {
        type wall;
        faces
        (
            (4 7 3 0)
        );
    }
);

mergePatchPairs
(
);


// ************************************************************************* //
